---- qbsp / ericw-tools v0.18.1 ----
Input file: FirstTry.map
Output file: FirstTry.bsp

---- LoadMapFile ----
*** WARNING 02: Multiple info_player_start entities
*** WARNING 02: Multiple info_player_start entities
*** WARNING 02: Multiple info_player_start entities
*** WARNING 02: Multiple info_player_start entities
*** WARNING 02: Multiple info_player_start entities
*** WARNING 02: Multiple info_player_start entities
*** WARNING 02: Multiple info_player_start entities
          626 faces
          104 brushes
           48 entities
            6 unique texnames
          169 texinfo

Opened WAD: C:/Users/BatGirl/Documents/GameDev/quake-level-design/wads/prototype_1_2.wad
Processing hull 0...
---- Brush_LoadEntity ----
          104 brushes
           80 planes
---- CSGFaces ----
          626 brushfaces
          383 csgfaces
          369 mergedfaces
---- SolidBSP ----
          658 split nodes
          268 solid leafs
          325 empty leafs
           66 water leafs
            0 detail leafs
            0 detail illusionary leafs
            0 detail fence leafs
            0 illusionary visblocker leafs
         1739 leaffaces
         1684 nodefaces
---- Portalize ----
          391 vis leafs
          391 vis clusters
          923 vis portals
---- FillOutside ----
          224 outleafs
---- MergeAll ----
          299 mergefaces
---- SolidBSP ----
          140 split nodes
           71 solid leafs
           53 empty leafs
           17 water leafs
            0 detail leafs
            0 detail illusionary leafs
            0 detail fence leafs
            0 illusionary visblocker leafs
          736 leaffaces
          588 nodefaces
---- Portalize ----
           70 vis leafs
           70 vis clusters
          187 vis portals
---- Tjunc ----
          391 world edges
         1765 edge points
          585 edges added by tjunctions
            0 faces added by tjunctions
---- MakeFaceEdges ----
---- GrowRegions ----
Processing hull 1...
Processing hull 2...
---- WriteBSPFile ----
Wrote FirstTry.bsp
          145 planes             2900
          735 vertexes           8820
          140 nodes              3360
           73 texinfo            2920
          588 faces             11760
          361 clipnodes          2888
           71 leafs              1988
          736 marksurfaces       1472
         2932 surfedges         11728
         1467 edges              5868
            6 textures          71668
              lightdata             0
              visdata               0
              entdata            2915

0.292 seconds elapsed
Peak memory usage: 4671304 (4.5M)
