---- qbsp / ericw-tools v0.18.1 ----
Input file: FirstTry.map
Output file: FirstTry.bsp

---- LoadMapFile ----
*** WARNING 02: Multiple info_player_start entities
*** WARNING 02: Multiple info_player_start entities
*** WARNING 02: Multiple info_player_start entities
*** WARNING 02: Multiple info_player_start entities
*** WARNING 02: Multiple info_player_start entities
*** WARNING 02: Multiple info_player_start entities
*** WARNING 02: Multiple info_player_start entities
          648 faces
          108 brushes
           68 entities
            6 unique texnames
          197 texinfo

Opened WAD: C:/Users/BatGirl/Documents/GameDev/quake-level-design/wads/prototype_1_2.wad
Processing hull 0...
---- Brush_LoadEntity ----
          108 brushes
           85 planes
---- CSGFaces ----
          648 brushfaces
          441 csgfaces
          412 mergedfaces
---- SolidBSP ----
          714 split nodes
          300 solid leafs
          368 empty leafs
           47 water leafs
            0 detail leafs
            0 detail illusionary leafs
            0 detail fence leafs
            0 illusionary visblocker leafs
         1836 leaffaces
         1764 nodefaces
---- Portalize ----
          415 vis leafs
          415 vis clusters
          985 vis portals
---- FillOutside ----
*** WARNING 10: Reached occupant at (532 -180 252), no filling performed.
Leak file written to FirstTry.pts
---- MakeFaceEdges ----
---- GrowRegions ----
Processing hull 1...
Processing hull 2...
---- WriteBSPFile ----
Wrote FirstTry.bsp
          149 planes             2980
         2182 vertexes          26184
          714 nodes             17136
          125 texinfo            5000
         1764 faces             35280
          377 clipnodes          3016
          416 leafs             11648
         1836 marksurfaces       3672
         7056 surfedges         28224
         4453 edges             17812
            6 textures          55348
              lightdata             0
              visdata               0
              entdata            4338

0.217 seconds elapsed
Peak memory usage: 7032132 (6.7M)
